6
0 1 BH4Na
Na                    1.754516062531     1.565201219637     0.710727894442
B                     0.882589861958    -0.443291287754     0.081420536306
H                     0.566221398236    -0.175863452242     1.257974557818
H                     0.458478192691     0.469608620444    -0.655080321960
H                     0.421164068101    -1.505919694931    -0.250509818699
H                     2.127210416484    -0.461265405153     0.005047152093
