13
0 1 BrC6H5Mg
Br                   -6.082883813540    -4.244220266240     0.110877057531
Mg                   -3.733203491679    -4.056303450697     0.231537265903
C                    -1.667300766426    -3.888915172888     0.335703056335
C                    -1.028665144842    -2.636231349218     0.452216619931
C                     0.362031114306    -2.520464520766     0.521884372661
C                     1.160067176915    -3.664603816524     0.476988989943
C                     0.560459391109    -4.919672454379     0.362363367222
C                    -0.831137325020    -5.024650970955     0.293280017174
H                    -1.617539043183    -1.719725866394     0.490041491613
H                     0.821530178523    -1.538719623576     0.610912132173
H                     2.242444671563    -3.578623492050     0.530836783783
H                     1.175276183566    -5.816104864883     0.326513781365
H                    -1.261599131290    -6.022134151429     0.203925064367
